<?xml version="1.0" encoding="utf-8"?>
<configuration>
	<input>
		<net-file value="./env/NewYork.net.xml"/>
		<route-files value="./env/NewYork.rou.xml"/>
	</input>
	<time>
		<begin value="0"/>
		<end value="3600"/>
	</time>
</configuration>
