<additional xmlns:xsi="http://www.w3.org/2001/XMLSchema-instance" xsi:noNamespaceSchemaLocation="http://sumo.dlr.de/xsd/additional_file.xsd">
    <laneAreaDetector file="e2.output.xml" freq="60" friendlyPos="x" id="e2det--intersection_1_1--road_0_1_0--road_0_1_0_0--r" lane="road_0_1_0_0" pos="341.40" length="45"/>
    <laneAreaDetector file="e2.output.xml" freq="60" friendlyPos="x" id="e2det--intersection_1_1--road_0_1_0--road_0_1_0_1--s" lane="road_0_1_0_1" pos="341.40" length="45"/>
    <laneAreaDetector file="e2.output.xml" freq="60" friendlyPos="x" id="e2det--intersection_1_1--road_0_1_0--road_0_1_0_2--l" lane="road_0_1_0_2" pos="341.40" length="45"/>

    <laneAreaDetector file="e2.output.xml" freq="60" friendlyPos="x" id="e2det--intersection_1_1--road_1_0_1--road_1_0_1_0--r" lane="road_1_0_1_0" pos="741.40" length="45"/>
    <laneAreaDetector file="e2.output.xml" freq="60" friendlyPos="x" id="e2det--intersection_1_1--road_1_0_1--road_1_0_1_1--s" lane="road_1_0_1_1" pos="741.40" length="45"/>
    <laneAreaDetector file="e2.output.xml" freq="60" friendlyPos="x" id="e2det--intersection_1_1--road_1_0_1--road_1_0_1_2--l" lane="road_1_0_1_2" pos="741.40" length="45"/>

    <laneAreaDetector file="e2.output.xml" freq="60" friendlyPos="x" id="e2det--intersection_1_1--road_2_1_2--road_2_1_2_0--r" lane="road_2_1_2_0" pos="327.80" length="45"/>
    <laneAreaDetector file="e2.output.xml" freq="60" friendlyPos="x" id="e2det--intersection_1_1--road_2_1_2--road_2_1_2_1--s" lane="road_2_1_2_1" pos="327.80" length="45"/>
    <laneAreaDetector file="e2.output.xml" freq="60" friendlyPos="x" id="e2det--intersection_1_1--road_2_1_2--road_2_1_2_2--l" lane="road_2_1_2_2" pos="327.80" length="45"/>

    <laneAreaDetector file="e2.output.xml" freq="60" friendlyPos="x" id="e2det--intersection_1_1--road_1_2_3--road_1_2_3_0--r" lane="road_1_2_3_0" pos="727.80" length="45"/>
    <laneAreaDetector file="e2.output.xml" freq="60" friendlyPos="x" id="e2det--intersection_1_1--road_1_2_3--road_1_2_3_1--s" lane="road_1_2_3_1" pos="727.80" length="45"/>
    <laneAreaDetector file="e2.output.xml" freq="60" friendlyPos="x" id="e2det--intersection_1_1--road_1_2_3--road_1_2_3_2--l" lane="road_1_2_3_2" pos="727.80" length="45"/>
</additional>