<additional xmlns:xsi="http://www.w3.org/2001/XMLSchema-instance" xsi:noNamespaceSchemaLocation="http://sumo.dlr.de/xsd/additional_file.xsd">
    <laneAreaDetector file="e2.output.xml" freq="60" friendlyPos="x" id="e2det--intersection_1_1--road_0_1_0--road_0_1_0_0--r" lane="road_0_1_0_0" pos="341.40" length="45.0"/>
    <laneAreaDetector file="e2.output.xml" freq="60" friendlyPos="x" id="e2det--intersection_1_1--road_0_1_0--road_0_1_0_1--s" lane="road_0_1_0_1" pos="341.40" length="45.0"/>
    <laneAreaDetector file="e2.output.xml" freq="60" friendlyPos="x" id="e2det--intersection_1_1--road_0_1_0--road_0_1_0_2--l" lane="road_0_1_0_2" pos="341.40" length="45.0"/>
    <laneAreaDetector file="e2.output.xml" freq="60" friendlyPos="x" id="e2det--intersection_1_1--road_1_0_1--road_1_0_1_0--r" lane="road_1_0_1_0" pos="741.40" length="45.0"/>
    <laneAreaDetector file="e2.output.xml" freq="60" friendlyPos="x" id="e2det--intersection_1_1--road_1_0_1--road_1_0_1_1--s" lane="road_1_0_1_1" pos="741.40" length="45.0"/>
    <laneAreaDetector file="e2.output.xml" freq="60" friendlyPos="x" id="e2det--intersection_1_1--road_1_0_1--road_1_0_1_2--l" lane="road_1_0_1_2" pos="741.40" length="45.0"/>
    <laneAreaDetector file="e2.output.xml" freq="60" friendlyPos="x" id="e2det--intersection_1_1--road_1_2_3--road_1_2_3_0--r" lane="road_1_2_3_0" pos="727.80" length="45.0"/>
    <laneAreaDetector file="e2.output.xml" freq="60" friendlyPos="x" id="e2det--intersection_1_1--road_1_2_3--road_1_2_3_1--s" lane="road_1_2_3_1" pos="727.80" length="45.0"/>
    <laneAreaDetector file="e2.output.xml" freq="60" friendlyPos="x" id="e2det--intersection_1_1--road_1_2_3--road_1_2_3_2--l" lane="road_1_2_3_2" pos="727.80" length="45.0"/>
    <laneAreaDetector file="e2.output.xml" freq="60" friendlyPos="x" id="e2det--intersection_1_1--road_2_1_2--road_2_1_2_0--r" lane="road_2_1_2_0" pos="327.80" length="45.0"/>
    <laneAreaDetector file="e2.output.xml" freq="60" friendlyPos="x" id="e2det--intersection_1_1--road_2_1_2--road_2_1_2_1--s" lane="road_2_1_2_1" pos="327.80" length="45.0"/>
    <laneAreaDetector file="e2.output.xml" freq="60" friendlyPos="x" id="e2det--intersection_1_1--road_2_1_2--road_2_1_2_2--l" lane="road_2_1_2_2" pos="327.80" length="45.0"/>
    <laneAreaDetector file="e2.output.xml" freq="60" friendlyPos="x" id="e2det--intersection_1_2--road_0_2_0--road_0_2_0_0--r" lane="road_0_2_0_0" pos="341.40" length="45.0"/>
    <laneAreaDetector file="e2.output.xml" freq="60" friendlyPos="x" id="e2det--intersection_1_2--road_0_2_0--road_0_2_0_1--s" lane="road_0_2_0_1" pos="341.40" length="45.0"/>
    <laneAreaDetector file="e2.output.xml" freq="60" friendlyPos="x" id="e2det--intersection_1_2--road_0_2_0--road_0_2_0_2--l" lane="road_0_2_0_2" pos="341.40" length="45.0"/>
    <laneAreaDetector file="e2.output.xml" freq="60" friendlyPos="x" id="e2det--intersection_1_2--road_1_1_1--road_1_1_1_0--r" lane="road_1_1_1_0" pos="727.80" length="45.0"/>
    <laneAreaDetector file="e2.output.xml" freq="60" friendlyPos="x" id="e2det--intersection_1_2--road_1_1_1--road_1_1_1_1--s" lane="road_1_1_1_1" pos="727.80" length="45.0"/>
    <laneAreaDetector file="e2.output.xml" freq="60" friendlyPos="x" id="e2det--intersection_1_2--road_1_1_1--road_1_1_1_2--l" lane="road_1_1_1_2" pos="727.80" length="45.0"/>
    <laneAreaDetector file="e2.output.xml" freq="60" friendlyPos="x" id="e2det--intersection_1_2--road_1_3_3--road_1_3_3_0--r" lane="road_1_3_3_0" pos="727.80" length="45.0"/>
    <laneAreaDetector file="e2.output.xml" freq="60" friendlyPos="x" id="e2det--intersection_1_2--road_1_3_3--road_1_3_3_1--s" lane="road_1_3_3_1" pos="727.80" length="45.0"/>
    <laneAreaDetector file="e2.output.xml" freq="60" friendlyPos="x" id="e2det--intersection_1_2--road_1_3_3--road_1_3_3_2--l" lane="road_1_3_3_2" pos="727.80" length="45.0"/>
    <laneAreaDetector file="e2.output.xml" freq="60" friendlyPos="x" id="e2det--intersection_1_2--road_2_2_2--road_2_2_2_0--r" lane="road_2_2_2_0" pos="327.80" length="45.0"/>
    <laneAreaDetector file="e2.output.xml" freq="60" friendlyPos="x" id="e2det--intersection_1_2--road_2_2_2--road_2_2_2_1--s" lane="road_2_2_2_1" pos="327.80" length="45.0"/>
    <laneAreaDetector file="e2.output.xml" freq="60" friendlyPos="x" id="e2det--intersection_1_2--road_2_2_2--road_2_2_2_2--l" lane="road_2_2_2_2" pos="327.80" length="45.0"/>
    <laneAreaDetector file="e2.output.xml" freq="60" friendlyPos="x" id="e2det--intersection_1_3--road_0_3_0--road_0_3_0_0--r" lane="road_0_3_0_0" pos="341.40" length="45.0"/>
    <laneAreaDetector file="e2.output.xml" freq="60" friendlyPos="x" id="e2det--intersection_1_3--road_0_3_0--road_0_3_0_1--s" lane="road_0_3_0_1" pos="341.40" length="45.0"/>
    <laneAreaDetector file="e2.output.xml" freq="60" friendlyPos="x" id="e2det--intersection_1_3--road_0_3_0--road_0_3_0_2--l" lane="road_0_3_0_2" pos="341.40" length="45.0"/>
    <laneAreaDetector file="e2.output.xml" freq="60" friendlyPos="x" id="e2det--intersection_1_3--road_1_2_1--road_1_2_1_0--r" lane="road_1_2_1_0" pos="727.80" length="45.0"/>
    <laneAreaDetector file="e2.output.xml" freq="60" friendlyPos="x" id="e2det--intersection_1_3--road_1_2_1--road_1_2_1_1--s" lane="road_1_2_1_1" pos="727.80" length="45.0"/>
    <laneAreaDetector file="e2.output.xml" freq="60" friendlyPos="x" id="e2det--intersection_1_3--road_1_2_1--road_1_2_1_2--l" lane="road_1_2_1_2" pos="727.80" length="45.0"/>
    <laneAreaDetector file="e2.output.xml" freq="60" friendlyPos="x" id="e2det--intersection_1_3--road_1_4_3--road_1_4_3_0--r" lane="road_1_4_3_0" pos="741.40" length="45.0"/>
    <laneAreaDetector file="e2.output.xml" freq="60" friendlyPos="x" id="e2det--intersection_1_3--road_1_4_3--road_1_4_3_1--s" lane="road_1_4_3_1" pos="741.40" length="45.0"/>
    <laneAreaDetector file="e2.output.xml" freq="60" friendlyPos="x" id="e2det--intersection_1_3--road_1_4_3--road_1_4_3_2--l" lane="road_1_4_3_2" pos="741.40" length="45.0"/>
    <laneAreaDetector file="e2.output.xml" freq="60" friendlyPos="x" id="e2det--intersection_1_3--road_2_3_2--road_2_3_2_0--r" lane="road_2_3_2_0" pos="327.80" length="45.0"/>
    <laneAreaDetector file="e2.output.xml" freq="60" friendlyPos="x" id="e2det--intersection_1_3--road_2_3_2--road_2_3_2_1--s" lane="road_2_3_2_1" pos="327.80" length="45.0"/>
    <laneAreaDetector file="e2.output.xml" freq="60" friendlyPos="x" id="e2det--intersection_1_3--road_2_3_2--road_2_3_2_2--l" lane="road_2_3_2_2" pos="327.80" length="45.0"/>
    <laneAreaDetector file="e2.output.xml" freq="60" friendlyPos="x" id="e2det--intersection_2_1--road_1_1_0--road_1_1_0_0--r" lane="road_1_1_0_0" pos="327.80" length="45.0"/>
    <laneAreaDetector file="e2.output.xml" freq="60" friendlyPos="x" id="e2det--intersection_2_1--road_1_1_0--road_1_1_0_1--s" lane="road_1_1_0_1" pos="327.80" length="45.0"/>
    <laneAreaDetector file="e2.output.xml" freq="60" friendlyPos="x" id="e2det--intersection_2_1--road_1_1_0--road_1_1_0_2--l" lane="road_1_1_0_2" pos="327.80" length="45.0"/>
    <laneAreaDetector file="e2.output.xml" freq="60" friendlyPos="x" id="e2det--intersection_2_1--road_2_0_1--road_2_0_1_0--r" lane="road_2_0_1_0" pos="741.40" length="45.0"/>
    <laneAreaDetector file="e2.output.xml" freq="60" friendlyPos="x" id="e2det--intersection_2_1--road_2_0_1--road_2_0_1_1--s" lane="road_2_0_1_1" pos="741.40" length="45.0"/>
    <laneAreaDetector file="e2.output.xml" freq="60" friendlyPos="x" id="e2det--intersection_2_1--road_2_0_1--road_2_0_1_2--l" lane="road_2_0_1_2" pos="741.40" length="45.0"/>
    <laneAreaDetector file="e2.output.xml" freq="60" friendlyPos="x" id="e2det--intersection_2_1--road_2_2_3--road_2_2_3_0--r" lane="road_2_2_3_0" pos="727.80" length="45.0"/>
    <laneAreaDetector file="e2.output.xml" freq="60" friendlyPos="x" id="e2det--intersection_2_1--road_2_2_3--road_2_2_3_1--s" lane="road_2_2_3_1" pos="727.80" length="45.0"/>
    <laneAreaDetector file="e2.output.xml" freq="60" friendlyPos="x" id="e2det--intersection_2_1--road_2_2_3--road_2_2_3_2--l" lane="road_2_2_3_2" pos="727.80" length="45.0"/>
    <laneAreaDetector file="e2.output.xml" freq="60" friendlyPos="x" id="e2det--intersection_2_1--road_3_1_2--road_3_1_2_0--r" lane="road_3_1_2_0" pos="327.80" length="45.0"/>
    <laneAreaDetector file="e2.output.xml" freq="60" friendlyPos="x" id="e2det--intersection_2_1--road_3_1_2--road_3_1_2_1--s" lane="road_3_1_2_1" pos="327.80" length="45.0"/>
    <laneAreaDetector file="e2.output.xml" freq="60" friendlyPos="x" id="e2det--intersection_2_1--road_3_1_2--road_3_1_2_2--l" lane="road_3_1_2_2" pos="327.80" length="45.0"/>
    <laneAreaDetector file="e2.output.xml" freq="60" friendlyPos="x" id="e2det--intersection_2_2--road_1_2_0--road_1_2_0_0--r" lane="road_1_2_0_0" pos="327.80" length="45.0"/>
    <laneAreaDetector file="e2.output.xml" freq="60" friendlyPos="x" id="e2det--intersection_2_2--road_1_2_0--road_1_2_0_1--s" lane="road_1_2_0_1" pos="327.80" length="45.0"/>
    <laneAreaDetector file="e2.output.xml" freq="60" friendlyPos="x" id="e2det--intersection_2_2--road_1_2_0--road_1_2_0_2--l" lane="road_1_2_0_2" pos="327.80" length="45.0"/>
    <laneAreaDetector file="e2.output.xml" freq="60" friendlyPos="x" id="e2det--intersection_2_2--road_2_1_1--road_2_1_1_0--r" lane="road_2_1_1_0" pos="727.80" length="45.0"/>
    <laneAreaDetector file="e2.output.xml" freq="60" friendlyPos="x" id="e2det--intersection_2_2--road_2_1_1--road_2_1_1_1--s" lane="road_2_1_1_1" pos="727.80" length="45.0"/>
    <laneAreaDetector file="e2.output.xml" freq="60" friendlyPos="x" id="e2det--intersection_2_2--road_2_1_1--road_2_1_1_2--l" lane="road_2_1_1_2" pos="727.80" length="45.0"/>
    <laneAreaDetector file="e2.output.xml" freq="60" friendlyPos="x" id="e2det--intersection_2_2--road_2_3_3--road_2_3_3_0--r" lane="road_2_3_3_0" pos="727.80" length="45.0"/>
    <laneAreaDetector file="e2.output.xml" freq="60" friendlyPos="x" id="e2det--intersection_2_2--road_2_3_3--road_2_3_3_1--s" lane="road_2_3_3_1" pos="727.80" length="45.0"/>
    <laneAreaDetector file="e2.output.xml" freq="60" friendlyPos="x" id="e2det--intersection_2_2--road_2_3_3--road_2_3_3_2--l" lane="road_2_3_3_2" pos="727.80" length="45.0"/>
    <laneAreaDetector file="e2.output.xml" freq="60" friendlyPos="x" id="e2det--intersection_2_2--road_3_2_2--road_3_2_2_0--r" lane="road_3_2_2_0" pos="327.80" length="45.0"/>
    <laneAreaDetector file="e2.output.xml" freq="60" friendlyPos="x" id="e2det--intersection_2_2--road_3_2_2--road_3_2_2_1--s" lane="road_3_2_2_1" pos="327.80" length="45.0"/>
    <laneAreaDetector file="e2.output.xml" freq="60" friendlyPos="x" id="e2det--intersection_2_2--road_3_2_2--road_3_2_2_2--l" lane="road_3_2_2_2" pos="327.80" length="45.0"/>
    <laneAreaDetector file="e2.output.xml" freq="60" friendlyPos="x" id="e2det--intersection_2_3--road_1_3_0--road_1_3_0_0--r" lane="road_1_3_0_0" pos="327.80" length="45.0"/>
    <laneAreaDetector file="e2.output.xml" freq="60" friendlyPos="x" id="e2det--intersection_2_3--road_1_3_0--road_1_3_0_1--s" lane="road_1_3_0_1" pos="327.80" length="45.0"/>
    <laneAreaDetector file="e2.output.xml" freq="60" friendlyPos="x" id="e2det--intersection_2_3--road_1_3_0--road_1_3_0_2--l" lane="road_1_3_0_2" pos="327.80" length="45.0"/>
    <laneAreaDetector file="e2.output.xml" freq="60" friendlyPos="x" id="e2det--intersection_2_3--road_2_2_1--road_2_2_1_0--r" lane="road_2_2_1_0" pos="727.80" length="45.0"/>
    <laneAreaDetector file="e2.output.xml" freq="60" friendlyPos="x" id="e2det--intersection_2_3--road_2_2_1--road_2_2_1_1--s" lane="road_2_2_1_1" pos="727.80" length="45.0"/>
    <laneAreaDetector file="e2.output.xml" freq="60" friendlyPos="x" id="e2det--intersection_2_3--road_2_2_1--road_2_2_1_2--l" lane="road_2_2_1_2" pos="727.80" length="45.0"/>
    <laneAreaDetector file="e2.output.xml" freq="60" friendlyPos="x" id="e2det--intersection_2_3--road_2_4_3--road_2_4_3_0--r" lane="road_2_4_3_0" pos="741.40" length="45.0"/>
    <laneAreaDetector file="e2.output.xml" freq="60" friendlyPos="x" id="e2det--intersection_2_3--road_2_4_3--road_2_4_3_1--s" lane="road_2_4_3_1" pos="741.40" length="45.0"/>
    <laneAreaDetector file="e2.output.xml" freq="60" friendlyPos="x" id="e2det--intersection_2_3--road_2_4_3--road_2_4_3_2--l" lane="road_2_4_3_2" pos="741.40" length="45.0"/>
    <laneAreaDetector file="e2.output.xml" freq="60" friendlyPos="x" id="e2det--intersection_2_3--road_3_3_2--road_3_3_2_0--r" lane="road_3_3_2_0" pos="327.80" length="45.0"/>
    <laneAreaDetector file="e2.output.xml" freq="60" friendlyPos="x" id="e2det--intersection_2_3--road_3_3_2--road_3_3_2_1--s" lane="road_3_3_2_1" pos="327.80" length="45.0"/>
    <laneAreaDetector file="e2.output.xml" freq="60" friendlyPos="x" id="e2det--intersection_2_3--road_3_3_2--road_3_3_2_2--l" lane="road_3_3_2_2" pos="327.80" length="45.0"/>
    <laneAreaDetector file="e2.output.xml" freq="60" friendlyPos="x" id="e2det--intersection_3_1--road_2_1_0--road_2_1_0_0--r" lane="road_2_1_0_0" pos="327.80" length="45.0"/>
    <laneAreaDetector file="e2.output.xml" freq="60" friendlyPos="x" id="e2det--intersection_3_1--road_2_1_0--road_2_1_0_1--s" lane="road_2_1_0_1" pos="327.80" length="45.0"/>
    <laneAreaDetector file="e2.output.xml" freq="60" friendlyPos="x" id="e2det--intersection_3_1--road_2_1_0--road_2_1_0_2--l" lane="road_2_1_0_2" pos="327.80" length="45.0"/>
    <laneAreaDetector file="e2.output.xml" freq="60" friendlyPos="x" id="e2det--intersection_3_1--road_3_0_1--road_3_0_1_0--r" lane="road_3_0_1_0" pos="741.40" length="45.0"/>
    <laneAreaDetector file="e2.output.xml" freq="60" friendlyPos="x" id="e2det--intersection_3_1--road_3_0_1--road_3_0_1_1--s" lane="road_3_0_1_1" pos="741.40" length="45.0"/>
    <laneAreaDetector file="e2.output.xml" freq="60" friendlyPos="x" id="e2det--intersection_3_1--road_3_0_1--road_3_0_1_2--l" lane="road_3_0_1_2" pos="741.40" length="45.0"/>
    <laneAreaDetector file="e2.output.xml" freq="60" friendlyPos="x" id="e2det--intersection_3_1--road_3_2_3--road_3_2_3_0--r" lane="road_3_2_3_0" pos="727.80" length="45.0"/>
    <laneAreaDetector file="e2.output.xml" freq="60" friendlyPos="x" id="e2det--intersection_3_1--road_3_2_3--road_3_2_3_1--s" lane="road_3_2_3_1" pos="727.80" length="45.0"/>
    <laneAreaDetector file="e2.output.xml" freq="60" friendlyPos="x" id="e2det--intersection_3_1--road_3_2_3--road_3_2_3_2--l" lane="road_3_2_3_2" pos="727.80" length="45.0"/>
    <laneAreaDetector file="e2.output.xml" freq="60" friendlyPos="x" id="e2det--intersection_3_1--road_4_1_2--road_4_1_2_0--r" lane="road_4_1_2_0" pos="327.80" length="45.0"/>
    <laneAreaDetector file="e2.output.xml" freq="60" friendlyPos="x" id="e2det--intersection_3_1--road_4_1_2--road_4_1_2_1--s" lane="road_4_1_2_1" pos="327.80" length="45.0"/>
    <laneAreaDetector file="e2.output.xml" freq="60" friendlyPos="x" id="e2det--intersection_3_1--road_4_1_2--road_4_1_2_2--l" lane="road_4_1_2_2" pos="327.80" length="45.0"/>
    <laneAreaDetector file="e2.output.xml" freq="60" friendlyPos="x" id="e2det--intersection_3_2--road_2_2_0--road_2_2_0_0--r" lane="road_2_2_0_0" pos="327.80" length="45.0"/>
    <laneAreaDetector file="e2.output.xml" freq="60" friendlyPos="x" id="e2det--intersection_3_2--road_2_2_0--road_2_2_0_1--s" lane="road_2_2_0_1" pos="327.80" length="45.0"/>
    <laneAreaDetector file="e2.output.xml" freq="60" friendlyPos="x" id="e2det--intersection_3_2--road_2_2_0--road_2_2_0_2--l" lane="road_2_2_0_2" pos="327.80" length="45.0"/>
    <laneAreaDetector file="e2.output.xml" freq="60" friendlyPos="x" id="e2det--intersection_3_2--road_3_1_1--road_3_1_1_0--r" lane="road_3_1_1_0" pos="727.80" length="45.0"/>
    <laneAreaDetector file="e2.output.xml" freq="60" friendlyPos="x" id="e2det--intersection_3_2--road_3_1_1--road_3_1_1_1--s" lane="road_3_1_1_1" pos="727.80" length="45.0"/>
    <laneAreaDetector file="e2.output.xml" freq="60" friendlyPos="x" id="e2det--intersection_3_2--road_3_1_1--road_3_1_1_2--l" lane="road_3_1_1_2" pos="727.80" length="45.0"/>
    <laneAreaDetector file="e2.output.xml" freq="60" friendlyPos="x" id="e2det--intersection_3_2--road_3_3_3--road_3_3_3_0--r" lane="road_3_3_3_0" pos="727.80" length="45.0"/>
    <laneAreaDetector file="e2.output.xml" freq="60" friendlyPos="x" id="e2det--intersection_3_2--road_3_3_3--road_3_3_3_1--s" lane="road_3_3_3_1" pos="727.80" length="45.0"/>
    <laneAreaDetector file="e2.output.xml" freq="60" friendlyPos="x" id="e2det--intersection_3_2--road_3_3_3--road_3_3_3_2--l" lane="road_3_3_3_2" pos="727.80" length="45.0"/>
    <laneAreaDetector file="e2.output.xml" freq="60" friendlyPos="x" id="e2det--intersection_3_2--road_4_2_2--road_4_2_2_0--r" lane="road_4_2_2_0" pos="327.80" length="45.0"/>
    <laneAreaDetector file="e2.output.xml" freq="60" friendlyPos="x" id="e2det--intersection_3_2--road_4_2_2--road_4_2_2_1--s" lane="road_4_2_2_1" pos="327.80" length="45.0"/>
    <laneAreaDetector file="e2.output.xml" freq="60" friendlyPos="x" id="e2det--intersection_3_2--road_4_2_2--road_4_2_2_2--l" lane="road_4_2_2_2" pos="327.80" length="45.0"/>
    <laneAreaDetector file="e2.output.xml" freq="60" friendlyPos="x" id="e2det--intersection_3_3--road_2_3_0--road_2_3_0_0--r" lane="road_2_3_0_0" pos="327.80" length="45.0"/>
    <laneAreaDetector file="e2.output.xml" freq="60" friendlyPos="x" id="e2det--intersection_3_3--road_2_3_0--road_2_3_0_1--s" lane="road_2_3_0_1" pos="327.80" length="45.0"/>
    <laneAreaDetector file="e2.output.xml" freq="60" friendlyPos="x" id="e2det--intersection_3_3--road_2_3_0--road_2_3_0_2--l" lane="road_2_3_0_2" pos="327.80" length="45.0"/>
    <laneAreaDetector file="e2.output.xml" freq="60" friendlyPos="x" id="e2det--intersection_3_3--road_3_2_1--road_3_2_1_0--r" lane="road_3_2_1_0" pos="727.80" length="45.0"/>
    <laneAreaDetector file="e2.output.xml" freq="60" friendlyPos="x" id="e2det--intersection_3_3--road_3_2_1--road_3_2_1_1--s" lane="road_3_2_1_1" pos="727.80" length="45.0"/>
    <laneAreaDetector file="e2.output.xml" freq="60" friendlyPos="x" id="e2det--intersection_3_3--road_3_2_1--road_3_2_1_2--l" lane="road_3_2_1_2" pos="727.80" length="45.0"/>
    <laneAreaDetector file="e2.output.xml" freq="60" friendlyPos="x" id="e2det--intersection_3_3--road_3_4_3--road_3_4_3_0--r" lane="road_3_4_3_0" pos="741.40" length="45.0"/>
    <laneAreaDetector file="e2.output.xml" freq="60" friendlyPos="x" id="e2det--intersection_3_3--road_3_4_3--road_3_4_3_1--s" lane="road_3_4_3_1" pos="741.40" length="45.0"/>
    <laneAreaDetector file="e2.output.xml" freq="60" friendlyPos="x" id="e2det--intersection_3_3--road_3_4_3--road_3_4_3_2--l" lane="road_3_4_3_2" pos="741.40" length="45.0"/>
    <laneAreaDetector file="e2.output.xml" freq="60" friendlyPos="x" id="e2det--intersection_3_3--road_4_3_2--road_4_3_2_0--r" lane="road_4_3_2_0" pos="327.80" length="45.0"/>
    <laneAreaDetector file="e2.output.xml" freq="60" friendlyPos="x" id="e2det--intersection_3_3--road_4_3_2--road_4_3_2_1--s" lane="road_4_3_2_1" pos="327.80" length="45.0"/>
    <laneAreaDetector file="e2.output.xml" freq="60" friendlyPos="x" id="e2det--intersection_3_3--road_4_3_2--road_4_3_2_2--l" lane="road_4_3_2_2" pos="327.80" length="45.0"/>
    <laneAreaDetector file="e2.output.xml" freq="60" friendlyPos="x" id="e2det--intersection_4_1--road_3_1_0--road_3_1_0_0--r" lane="road_3_1_0_0" pos="327.80" length="45.0"/>
    <laneAreaDetector file="e2.output.xml" freq="60" friendlyPos="x" id="e2det--intersection_4_1--road_3_1_0--road_3_1_0_1--s" lane="road_3_1_0_1" pos="327.80" length="45.0"/>
    <laneAreaDetector file="e2.output.xml" freq="60" friendlyPos="x" id="e2det--intersection_4_1--road_3_1_0--road_3_1_0_2--l" lane="road_3_1_0_2" pos="327.80" length="45.0"/>
    <laneAreaDetector file="e2.output.xml" freq="60" friendlyPos="x" id="e2det--intersection_4_1--road_4_0_1--road_4_0_1_0--r" lane="road_4_0_1_0" pos="741.40" length="45.0"/>
    <laneAreaDetector file="e2.output.xml" freq="60" friendlyPos="x" id="e2det--intersection_4_1--road_4_0_1--road_4_0_1_1--s" lane="road_4_0_1_1" pos="741.40" length="45.0"/>
    <laneAreaDetector file="e2.output.xml" freq="60" friendlyPos="x" id="e2det--intersection_4_1--road_4_0_1--road_4_0_1_2--l" lane="road_4_0_1_2" pos="741.40" length="45.0"/>
    <laneAreaDetector file="e2.output.xml" freq="60" friendlyPos="x" id="e2det--intersection_4_1--road_4_2_3--road_4_2_3_0--r" lane="road_4_2_3_0" pos="727.80" length="45.0"/>
    <laneAreaDetector file="e2.output.xml" freq="60" friendlyPos="x" id="e2det--intersection_4_1--road_4_2_3--road_4_2_3_1--s" lane="road_4_2_3_1" pos="727.80" length="45.0"/>
    <laneAreaDetector file="e2.output.xml" freq="60" friendlyPos="x" id="e2det--intersection_4_1--road_4_2_3--road_4_2_3_2--l" lane="road_4_2_3_2" pos="727.80" length="45.0"/>
    <laneAreaDetector file="e2.output.xml" freq="60" friendlyPos="x" id="e2det--intersection_4_1--road_5_1_2--road_5_1_2_0--r" lane="road_5_1_2_0" pos="341.40" length="45.0"/>
    <laneAreaDetector file="e2.output.xml" freq="60" friendlyPos="x" id="e2det--intersection_4_1--road_5_1_2--road_5_1_2_1--s" lane="road_5_1_2_1" pos="341.40" length="45.0"/>
    <laneAreaDetector file="e2.output.xml" freq="60" friendlyPos="x" id="e2det--intersection_4_1--road_5_1_2--road_5_1_2_2--l" lane="road_5_1_2_2" pos="341.40" length="45.0"/>
    <laneAreaDetector file="e2.output.xml" freq="60" friendlyPos="x" id="e2det--intersection_4_2--road_3_2_0--road_3_2_0_0--r" lane="road_3_2_0_0" pos="327.80" length="45.0"/>
    <laneAreaDetector file="e2.output.xml" freq="60" friendlyPos="x" id="e2det--intersection_4_2--road_3_2_0--road_3_2_0_1--s" lane="road_3_2_0_1" pos="327.80" length="45.0"/>
    <laneAreaDetector file="e2.output.xml" freq="60" friendlyPos="x" id="e2det--intersection_4_2--road_3_2_0--road_3_2_0_2--l" lane="road_3_2_0_2" pos="327.80" length="45.0"/>
    <laneAreaDetector file="e2.output.xml" freq="60" friendlyPos="x" id="e2det--intersection_4_2--road_4_1_1--road_4_1_1_0--r" lane="road_4_1_1_0" pos="727.80" length="45.0"/>
    <laneAreaDetector file="e2.output.xml" freq="60" friendlyPos="x" id="e2det--intersection_4_2--road_4_1_1--road_4_1_1_1--s" lane="road_4_1_1_1" pos="727.80" length="45.0"/>
    <laneAreaDetector file="e2.output.xml" freq="60" friendlyPos="x" id="e2det--intersection_4_2--road_4_1_1--road_4_1_1_2--l" lane="road_4_1_1_2" pos="727.80" length="45.0"/>
    <laneAreaDetector file="e2.output.xml" freq="60" friendlyPos="x" id="e2det--intersection_4_2--road_4_3_3--road_4_3_3_0--r" lane="road_4_3_3_0" pos="727.80" length="45.0"/>
    <laneAreaDetector file="e2.output.xml" freq="60" friendlyPos="x" id="e2det--intersection_4_2--road_4_3_3--road_4_3_3_1--s" lane="road_4_3_3_1" pos="727.80" length="45.0"/>
    <laneAreaDetector file="e2.output.xml" freq="60" friendlyPos="x" id="e2det--intersection_4_2--road_4_3_3--road_4_3_3_2--l" lane="road_4_3_3_2" pos="727.80" length="45.0"/>
    <laneAreaDetector file="e2.output.xml" freq="60" friendlyPos="x" id="e2det--intersection_4_2--road_5_2_2--road_5_2_2_0--r" lane="road_5_2_2_0" pos="341.40" length="45.0"/>
    <laneAreaDetector file="e2.output.xml" freq="60" friendlyPos="x" id="e2det--intersection_4_2--road_5_2_2--road_5_2_2_1--s" lane="road_5_2_2_1" pos="341.40" length="45.0"/>
    <laneAreaDetector file="e2.output.xml" freq="60" friendlyPos="x" id="e2det--intersection_4_2--road_5_2_2--road_5_2_2_2--l" lane="road_5_2_2_2" pos="341.40" length="45.0"/>
    <laneAreaDetector file="e2.output.xml" freq="60" friendlyPos="x" id="e2det--intersection_4_3--road_3_3_0--road_3_3_0_0--r" lane="road_3_3_0_0" pos="327.80" length="45.0"/>
    <laneAreaDetector file="e2.output.xml" freq="60" friendlyPos="x" id="e2det--intersection_4_3--road_3_3_0--road_3_3_0_1--s" lane="road_3_3_0_1" pos="327.80" length="45.0"/>
    <laneAreaDetector file="e2.output.xml" freq="60" friendlyPos="x" id="e2det--intersection_4_3--road_3_3_0--road_3_3_0_2--l" lane="road_3_3_0_2" pos="327.80" length="45.0"/>
    <laneAreaDetector file="e2.output.xml" freq="60" friendlyPos="x" id="e2det--intersection_4_3--road_4_2_1--road_4_2_1_0--r" lane="road_4_2_1_0" pos="727.80" length="45.0"/>
    <laneAreaDetector file="e2.output.xml" freq="60" friendlyPos="x" id="e2det--intersection_4_3--road_4_2_1--road_4_2_1_1--s" lane="road_4_2_1_1" pos="727.80" length="45.0"/>
    <laneAreaDetector file="e2.output.xml" freq="60" friendlyPos="x" id="e2det--intersection_4_3--road_4_2_1--road_4_2_1_2--l" lane="road_4_2_1_2" pos="727.80" length="45.0"/>
    <laneAreaDetector file="e2.output.xml" freq="60" friendlyPos="x" id="e2det--intersection_4_3--road_4_4_3--road_4_4_3_0--r" lane="road_4_4_3_0" pos="741.40" length="45.0"/>
    <laneAreaDetector file="e2.output.xml" freq="60" friendlyPos="x" id="e2det--intersection_4_3--road_4_4_3--road_4_4_3_1--s" lane="road_4_4_3_1" pos="741.40" length="45.0"/>
    <laneAreaDetector file="e2.output.xml" freq="60" friendlyPos="x" id="e2det--intersection_4_3--road_4_4_3--road_4_4_3_2--l" lane="road_4_4_3_2" pos="741.40" length="45.0"/>
    <laneAreaDetector file="e2.output.xml" freq="60" friendlyPos="x" id="e2det--intersection_4_3--road_5_3_2--road_5_3_2_0--r" lane="road_5_3_2_0" pos="341.40" length="45.0"/>
    <laneAreaDetector file="e2.output.xml" freq="60" friendlyPos="x" id="e2det--intersection_4_3--road_5_3_2--road_5_3_2_1--s" lane="road_5_3_2_1" pos="341.40" length="45.0"/>
    <laneAreaDetector file="e2.output.xml" freq="60" friendlyPos="x" id="e2det--intersection_4_3--road_5_3_2--road_5_3_2_2--l" lane="road_5_3_2_2" pos="341.40" length="45.0"/>
</additional>
