<additional xmlns:xsi="http://www.w3.org/2001/XMLSchema-instance" xsi:noNamespaceSchemaLocation="http://sumo.dlr.de/xsd/additional_file.xsd">
    <timedEvent type="SaveTLSProgram" source="intersection_1_1" dest="tls_programs.out.xml"/>
    <timedEvent type="SaveTLSProgram" source="intersection_1_2" dest="tls_programs.out.xml"/>
    <timedEvent type="SaveTLSProgram" source="intersection_1_3" dest="tls_programs.out.xml"/>
    <timedEvent type="SaveTLSProgram" source="intersection_2_1" dest="tls_programs.out.xml"/>
    <timedEvent type="SaveTLSProgram" source="intersection_2_2" dest="tls_programs.out.xml"/>
    <timedEvent type="SaveTLSProgram" source="intersection_2_3" dest="tls_programs.out.xml"/>
    <timedEvent type="SaveTLSProgram" source="intersection_3_1" dest="tls_programs.out.xml"/>
    <timedEvent type="SaveTLSProgram" source="intersection_3_2" dest="tls_programs.out.xml"/>
    <timedEvent type="SaveTLSProgram" source="intersection_3_3" dest="tls_programs.out.xml"/>
    <timedEvent type="SaveTLSProgram" source="intersection_4_1" dest="tls_programs.out.xml"/>
    <timedEvent type="SaveTLSProgram" source="intersection_4_2" dest="tls_programs.out.xml"/>
    <timedEvent type="SaveTLSProgram" source="intersection_4_3" dest="tls_programs.out.xml"/>
</additional>
